

;;____________________________________________________________________________________________________
[TITLE]
;;Project Title/Notes
INP file created by DSDAConvertToSwmmTools
version 0.0.1 EcoVista
Title/Notes:

;;____________________________________________________________________________________________________
[OPTIONS]
FLOW_UNITS           CMS
INFILTRATION         GREEN_AMPT
FLOW_ROUTING         DYNWAVE
LINK_OFFSETS         DEPTH
MIN_SLOPE            0
ALLOW_PONDING        NO
SKIP_STEADY_STATE    NO
START_DATE           07/15/2020
START_TIME           00:00:00
REPORT_START_DATE    07/15/2020
REPORT_START_TIME    00:00:00
END_DATE             07/15/2020
END_TIME             12:00:00
SWEEP_START          01/01
SWEEP_END            12/31
DRY_DAYS             0
REPORT_STEP          00:30:00
WET_STEP             00:05:00
DRY_STEP             01:00:00
ROUTING_STEP         0:00:30
RULE_STEP            00:00:00
INERTIAL_DAMPING     PARTIAL
NORMAL_FLOW_LIMITED  BOTH
FORCE_MAIN_EQUATION  H-W
VARIABLE_STEP        0.75
LENGTHENING_STEP     0
MIN_SURFAREA         1.14
MAX_TRIALS           8
HEAD_TOLERANCE       0.0015
SYS_FLOW_TOL         5
LAT_FLOW_TOL         5
MINIMUM_STEP         0.5
THREADS              1


;;____________________________________________________________________________________________________
[EVAPORATION]
;;Data Source    Parameters
;;-------------- ----------------
CONSTANT         3.1
DRY_ONLY         NO

;;____________________________________________________________________________________________________
[RAINGAGES]
RainGage INTENSITY 1:00 1 TIMESERIES bpswmm_1110

;;____________________________________________________________________________________________________
[SUBCATCHMENTS]
;;Name           Rain Gage        Outlet           Area     %Imperv  Width    %Slope   CurbLen  SnowPack        
;;-------------- ---------------- ---------------- -------- -------- -------- -------- -------- ----------------
1                RainGage         jd1              39.579947165008 43.974   439.6389 8.521    0                        
2                RainGage         jd126            90.4249506303777 78.716   1004.407 8.471    0                        
3                RainGage         jd18             40.0123596019868 81.755   746.384  12.242   0                        
4                RainGage         jd9              8.39229210676451 84.327   270.285  12.327   0                        
5                RainGage         jd8              12.367117179313 74.530   348.920  9.640    0                        
6                RainGage         jd7              9.29031408173248 71.340   268.181  12.495   0                        
7                RainGage         jd3              43.597915470997 74.414   608.538  7.425    0                        
8                RainGage         jd6              13.9239123796024 94.403   288.614  11.374   0                        
9                RainGage         jd5              11.70185803875 97.206   310.317  11.504   0                        
10               RainGage         jd10             22.5286840524673 83.736   474.740  11.340   0                        
11               RainGage         jd80             49.5769227528103 90.442   897.412  10.984   0                        
12               RainGage         jd123            48.7919334745036 71.250   892.084  8.904    0                        
13               RainGage         jd79             45.2295010088085 89.218   833.642  11.315   0                        
14               RainGage         jd19             18.8694067836902 89.094   494.393  10.889   0                        
15               RainGage         jd11             33.8007113293312 82.418   611.841  12.265   0                        
16               RainGage         jd20             29.5394438710403 85.472   544.454  10.265   0                        
17               RainGage         jd24             41.8450604614203 80.040   802.650  9.721    0                        
18               RainGage         jd13             41.2888595346935 92.130   693.937  13.658   0                        
19               RainGage         jd22             22.4829279710302 91.774   414.391  9.973    0                        
20               RainGage         jd125            53.663042766245 91.221   706.337  10.173   0                        
21               RainGage         jd32             31.3757850293864 97.057   585.203  12.485   0                        
22               RainGage         jd21             12.2976319174233 95.279   229.802  10.056   0                        
23               RainGage         jd124            57.2489071554464 87.768   869.969  10.486   0                        
24               RainGage         jd31             17.7333097131654 84.732   241.451  10.780   0                        
25               RainGage         jd15             20.2477274031709 90.616   392.815  16.136   0                        
26               RainGage         jd2              35.1006419795414 77.187   460.917  6.723    0                        
27               RainGage         jd4              42.2608606441913 92.514   673.367  7.389    0                        
28               RainGage         jd14             47.2759966038777 94.485   794.563  9.461    0                        
29               RainGage         jd16             23.3459649189136 84.481   489.292  14.475   0                        
30               RainGage         jd106            7.17023612250428 96.624   266.304  12.508   0                        
31               RainGage         jd29             22.0395060767063 97.898   419.645  14.965   0                        
32               RainGage         jd17             43.2090623149814 95.547   752.800  13.600   0                        
33               RainGage         jd81             35.2339028822018 96.745   592.172  12.176   0                        
34               RainGage         jd25             29.3141384867633 89.873   619.997  8.418    0                        
35               RainGage         jd26             41.4780768336085 92.457   758.362  12.216   0                        
36               RainGage         jd33             39.3511042362963 76.179   666.329  11.067   0                        
37               RainGage         jd12             22.1926428449705 94.602   401.718  12.381   0                        
38               RainGage         jd122            38.1404822063052 88.679   729.959  11.224   0                        
39               RainGage         jd35             42.2255333177858 80.116   751.149  12.660   0                        
40               RainGage         jd23             22.8636736454289 89.184   447.192  10.319   0                        
41               RainGage         jd135            19.7227205694482 91.198   551.418  9.231    0                        
42               RainGage         jd30             24.6963236355754 91.111   307.828  13.847   0                        
43               RainGage         jd37             79.0455197321906 76.618   985.006  8.978    0                        
44               RainGage         jd27             48.3340919821954 81.770   702.401  9.077    0                        
45               RainGage         jd38             72.3570072418478 76.807   901.658  11.846   0                        
46               RainGage         jd34             49.9873872814544 74.155   758.038  17.403   0                        
47               RainGage         jd44             116.586577634354 77.887   1274.248 16.054   0                        
48               RainGage         jd28             58.0332144297932 93.078   723.166  11.291   0                        
49               RainGage         jd36             67.6969432244589 85.188   871.702  8.761    0                        
50               RainGage         jd45             39.3045373827512 94.369   513.254  6.579    0                        
51               RainGage         jd46             18.7116137858032 90.286   246.291  6.776    0                        
52               RainGage         jd84             102.624565648005 43.901   1198.591 18.072   0                        
53               RainGage         jd43             106.508016193975 63.585   1333.931 16.829   0                        
54               RainGage         jd60             24.381276080356 78.465   484.326  8.911    0                        
55               RainGage         jd83             78.9051162029731 44.929   932.513  17.189   0                        
56               RainGage         jd110            81.4785156495963 16.940   687.851  18.493   0                        
57               RainGage         jd49             83.0805133540469 88.864   908.039  13.093   0                        
58               RainGage         jd19             16.4634513749063 82.336   288.551  12.572   0                        
59               RainGage         jd85             12.7317908956108 80.367   382.257  12.460   0                        
60               RainGage         jd62             28.6415309351857 30.118   324.966  14.278   0                        
61               RainGage         jd97             37.6847311535399 46.844   420.201  13.423   0                        
62               RainGage         jd50             117.189883165816 65.206   1149.000 12.413   0                        
63               RainGage         jd65             193.391303673664 88.977   1727.390 13.877   0                        
64               RainGage         jd121            21.470656472329 66.377   346.476  6.848    0                        
65               RainGage         jd42             67.2542075245452 90.244   870.836  7.904    0                        
66               RainGage         jd93             25.4801815800406 71.076   334.219  7.608    0                        
67               RainGage         jd61             32.3281362468529 66.427   433.246  11.637   0                        
68               RainGage         jd103            11.1139665352629 79.686   248.236  10.086   0                        
69               RainGage         jd48             32.0003791172439 46.774   425.763  17.434   0                        
70               RainGage         jd47             82.2709270303568 65.821   1065.279 11.249   0                        
71               RainGage         jd90             12.2660907818422 81.309   331.437  6.728    0                        
72               RainGage         jd59             12.4566837246239 85.728   336.587  7.361    0                        
73               RainGage         jd101            16.6118451430501 77.670   469.243  8.930    0                        
74               RainGage         jd51             21.5230837589648 74.030   472.848  10.597   0                        
75               RainGage         jd63             14.4096267041712 82.288   368.092  8.678    0                        
76               RainGage         jd87             9.68464586732705 86.571   298.968  8.159    0                        
77               RainGage         jd64             10.8214017294826 92.308   308.090  6.945    0                        
78               RainGage         jd89             10.989262999529 89.054   296.936  5.754    0                        
79               RainGage         jd69             106.038734439379 39.064   1039.668 15.194   0                        
80               RainGage         jd41             62.5972401096893 73.615   920.150  8.080    0                        
81               RainGage         jd52             43.5862024431606 74.773   585.570  8.210    0                        
82               RainGage         jd40             91.6820893870154 71.604   1202.577 7.908    0                        
83               RainGage         jd114            12.2223258681035 89.509   354.605  7.59     0                        
84               RainGage         jd117            11.9377350672711 84.471   235.585  9.561    0                        
85               RainGage         jd118            9.29883704475698 99.240   380.316  7.815    0                        
86               RainGage         jd112            14.7296308732707 91.561   371.371  8.757    0                        
87               RainGage         jd102            13.150558090731 97.859   371.064  5.936    0                        
88               RainGage         jd92             9.57574878452904 87.530   306.224  6.438    0                        
89               RainGage         jd55             19.2591480445204 91.961   608.964  6.980    0                        
90               RainGage         jd94             1.1475665641874 99.98    73.848   6.658    0                        
91               RainGage         jd53             21.8047835162624 83.244   298.046  7.420    0                        
92               RainGage         jd120            12.4995340360514 92.221   389.793  5.924    0                        
93               RainGage         jd39             51.1788238182166 75.160   754.652  11.079   0                        
94               RainGage         jd99             7.00676385254789 67.608   225.743  6.716    0                        
95               RainGage         jd95             2.18323784014891 99.89    88.198   8.082    0                        
96               RainGage         jd98             12.2184421003953 80.636   371.310  6.678    0                        
97               RainGage         jd54             9.93246529833078 97.880   312.726  7.542    0                        
98               RainGage         jd107            12.3269186861909 81.109   390.404  7.109    0                        
99               RainGage         jd136            37.1171887768704 40.170   332.908  20.320   0                        
100              RainGage         jd111            25.6540759243604 44.661   405.251  9.137    0                        
101              RainGage         jd66             48.9922371652993 45.757   417.172  14.933   0                        
102              RainGage         jd109            24.3815304753778 74.569   462.580  9.254    0                        
103              RainGage         jd113            36.3600770625811 24.928   595.900  19.667   0                        
104              RainGage         jd96             96.8986153125249 16.863   818.029  17.056   0                        
105              RainGage         jd56             13.0790430530474 82.242   415.130  7.154    0                        
106              RainGage         jd108            24.3991505337618 44.550   349.076  10.618   0

;;____________________________________________________________________________________________________
[SUBAREAS]
;;Subcatchment   N-Imperv   N-Perv     S-Imperv   S-Perv     PctZero    RouteTo    PctRouted 
;;-------------- ---------- ---------- ---------- ---------- ---------- ---------- ----------
1                0.0143     0.358      2.418      6.978      25         OUTLET    
2                0.0144     0.456      2.756      6.432      25         OUTLET    
3                0.0146     0.546      2.796      6.236      25         OUTLET    
4                0.0146     0.542      2.796      6.086      25         OUTLET    
5                0.0145     0.448      2.735      6.305      25         OUTLET    
6                0.0145     0.452      2.712      6.312      25         OUTLET    
7                0.0146     0.456      2.725      6.368      25         OUTLET    
8                0.0148     0.564      2.814      5.864      25         OUTLET    
9                0.0148     0.566      2.853      5.848      25         OUTLET    
10               0.0145     0.542      2.796      6.073      25         OUTLET    
11               0.0148     0.552      2.808      5.897      25         OUTLET    
12               0.0145     0.448      2.738      6.425      25         OUTLET    
13               0.0147     0.552      2.806      5.886      25         OUTLET    
14               0.0148     0.550      2.804      5.886      25         OUTLET    
15               0.0146     0.535      2.785      6.036      25         OUTLET    
16               0.0146     0.543      2.789      5.896      25         OUTLET    
17               0.0145     0.528      2.778      5.935      25         OUTLET    
18               0.0148     0.563      2.823      5.798      25         OUTLET    
19               0.0148     0.586      2.825      5.786      25         OUTLET    
20               0.0148     0.584      2.823      5.772      25         OUTLET    
21               0.0148     0.578      2.857      5.698      25         OUTLET    
22               0.0148     0.579      2.849      5.735      25         OUTLET    
23               0.0147     0.572      2.796      5.812      25         OUTLET    
24               0.0145     0.554      2.789      5.886      25         OUTLET    
25               0.0148     0.571      2.809      5.734      25         OUTLET    
26               0.0145     0.456      2.746      5.986      25         OUTLET    
27               0.0148     0.586      2.831      5.720      25         OUTLET    
28               0.0148     0.586      2.832      5.725      25         OUTLET    
29               0.0146     0.548      2.779      5.886      25         OUTLET    
30               0.0148     0.586      2.838      5.724      25         OUTLET    
31               0.0148     0.586      2.856      5.668      25         OUTLET    
32               0.0148     0.586      2.839      5.698      25         OUTLET    
33               0.0148     0.583      2.831      5.713      25         OUTLET    
34               0.0147     0.575      2.801      5.754      25         OUTLET    
35               0.0148     0.584      2.833      5.731      25         OUTLET    
36               0.0145     0.520      2.683      6.002      25         OUTLET    
37               0.0148     0.584      2.835      5.673      25         OUTLET    
38               0.0146     0.568      2.798      5.769      25         OUTLET    
39               0.0145     0.546      2.756      5.864      25         OUTLET    
40               0.0147     0.578      2.798      5.778      25         OUTLET    
41               0.0148     0.583      2.825      5.724      25         OUTLET    
42               0.0148     0.581      2.832      5.695      25         OUTLET    
43               0.0145     0.523      2.672      6.006      25         OUTLET    
44               0.0146     0.554      2.775      5.835      25         OUTLET    
45               0.0145     0.465      2.685      6.083      25         OUTLET    
46               0.0145     0.465      2.655      6.101      25         OUTLET    
47               0.0145     0.512      2.702      5.978      25         OUTLET    
48               0.0148     0.584      2.838      5.683      25         OUTLET    
49               0.0147     0.576      2.801      5.725      25         OUTLET    
50               0.0148     0.583      2.835      5.675      25         OUTLET    
51               0.0148     0.582      2.823      5.724      25         OUTLET    
52               0.0143     0.358      2.465      6.912      25         OUTLET    
53               0.0145     0.465      2.535      6.358      25         OUTLET    
54               0.0145     0.513      2.756      5.864      25         OUTLET    
55               0.0144     0.445      2.485      6.432      25         OUTLET    
56               0.0134     0.295      1.985      7.000      25         OUTLET    
57               0.0147     0.585      2.796      5.698      25         OUTLET    
58               0.0146     0.556      2.785      5.785      25         OUTLET    
59               0.0146     0.545      2.783      5.805      25         OUTLET    
60               0.0140     0.375      2.285      6.655      25         OUTLET    
61               0.0144     0.495      2.685      6.135      25         OUTLET    
62               0.0145     0.525      2.635      6.035      25         OUTLET    
63               0.0147     0.585      2.805      5.655      25         OUTLET    
64               0.0145     0.505      2.485      6.185      25         OUTLET    
65               0.0148     0.598      2.825      5.345      25         OUTLET    
66               0.0145     0.535      2.715      5.885      25         OUTLET    
67               0.0144     0.505      2.435      6.165      25         OUTLET    
68               0.0146     0.556      2.778      5.885      25         OUTLET    
69               0.0143     0.455      2.285      6.105      25         OUTLET    
70               0.0144     0.538      2.685      6.035      25         OUTLET    
71               0.0146     0.565      2.785      5.665      25         OUTLET    
72               0.0147     0.586      2.795      5.705      25         OUTLET    
73               0.0145     0.545      2.735      5.835      25         OUTLET    
74               0.0145     0.535      2.705      5.905      25         OUTLET    
75               0.0146     0.565      2.792      5.705      25         OUTLET    
76               0.0147     0.586      2.805      5.455      25         OUTLET    
77               0.0148     0.592      2.842      5.255      25         OUTLET    
78               0.0148     0.580      2.805      5.635      25         OUTLET    
79               0.0138     0.465      2.325      6.285      25         OUTLET    
80               0.0145     0.535      2.756      5.865      25         OUTLET    
81               0.0145     0.543      2.715      5.565      25         OUTLET    
82               0.0145     0.543      2.685      5.895      25         OUTLET    
83               0.0148     0.585      2.805      5.585      25         OUTLET    
84               0.0147     0.578      2.785      5.685      25         OUTLET    
85               0.0148     0.598      2.905      4.305      25         OUTLET    
86               0.0148     0.592      2.836      5.105      25         OUTLET    
87               0.0148     0.595      2.885      4.753      25         OUTLET    
88               0.0147     0.579      2.802      5.560      25         OUTLET    
89               0.0148     0.589      2.835      5.265      25         OUTLET    
90               0.0148     0.285      2.927      4.876      25         OUTLET    
91               0.0146     0.565      2.785      5.735      25         OUTLET    
92               0.0148     0.588      2.835      5.035      25         OUTLET    
93               0.0145     0.535      2.705      5.805      25         OUTLET    
94               0.0143     0.505      2.535      6.035      25         OUTLET    
95               0.0148     0.258      2.925      4.835      25         OUTLET    
96               0.0146     0.545      2.785      5.785      25         OUTLET    
97               0.0148     0.385      2.865      4.875      25         OUTLET    
98               0.0146     0.545      2.785      5.825      25         OUTLET    
99               0.0143     0.485      2.235      6.265      25         OUTLET    
100              0.0143     0.495      2.285      6.315      25         OUTLET    
101              0.0143     0.505      2.245      6.215      25         OUTLET    
102              0.0145     0.535      2.725      5.785      25         OUTLET    
103              0.013      0.253      2.234      6.935      25         OUTLET    
104              0.013      0.235      2.225      7.000      25         OUTLET    
105              0.0146     0.556      2.785      5.792      25         OUTLET    
106              0.0142     0.505      2.385      6.285      25         OUTLET

;;____________________________________________________________________________________________________
[INFILTRATION]
;;Subcatchment   Param1     Param2     Param3     Param4     Param5    
;;-------------- ---------- ---------- ---------- ---------- ----------
1                36         10         4          7          0         
2                36         10         4          7          0         
3                36         10         4          7          0         
4                36         10         4          7          0         
5                36         10         4          7          0         
6                36         10         4          7          0         
7                36         10         4          7          0         
8                36         10         4          7          0         
9                36         10         4          7          0         
10               36         10         4          7          0         
11               36         10         4          7          0         
12               36         10         4          7          0         
13               36         10         4          7          0         
14               36         10         4          7          0         
15               36         10         4          7          0         
16               36         10         4          7          0         
17               36         10         4          7          0         
18               36         10         4          7          0         
19               36         10         4          7          0         
20               36         10         4          7          0         
21               36         10         4          7          0         
22               36         10         4          7          0         
23               36         10         4          7          0         
24               36         10         4          7          0         
25               36         10         4          7          0         
26               36         10         4          7          0         
27               36         10         4          7          0         
28               36         10         4          7          0         
29               36         10         4          7          0         
30               36         10         4          7          0         
31               36         10         4          7          0         
32               36         10         4          7          0         
33               36         10         4          7          0         
34               36         10         4          7          0         
35               36         10         4          7          0         
36               36         10         4          7          0         
37               36         10         4          7          0         
38               36         10         4          7          0         
39               36         10         4          7          0         
40               36         10         4          7          0         
41               36         10         4          7          0         
42               36         10         4          7          0         
43               36         10         4          7          0         
44               36         10         4          7          0         
45               36         10         4          7          0         
46               36         10         4          7          0         
47               36         10         4          7          0         
48               36         10         4          7          0         
49               36         10         4          7          0         
50               36         10         4          7          0         
51               36         10         4          7          0         
52               36         10         4          7          0         
53               36         10         4          7          0         
54               36         10         4          7          0         
55               36         10         4          7          0         
56               36         10         4          7          0         
57               36         10         4          7          0         
58               36         10         4          7          0         
59               36         10         4          7          0         
60               36         10         4          7          0         
61               36         10         4          7          0         
62               36         10         4          7          0         
63               36         10         4          7          0         
64               36         10         4          7          0         
65               36         10         4          7          0         
66               36         10         4          7          0         
67               36         10         4          7          0         
68               36         10         4          7          0         
69               36         10         4          7          0         
70               36         10         4          7          0         
71               36         10         4          7          0         
72               36         10         4          7          0         
73               36         10         4          7          0         
74               36         10         4          7          0         
75               36         10         4          7          0         
76               36         10         4          7          0         
77               36         10         4          7          0         
78               36         10         4          7          0         
79               36         10         4          7          0         
80               36         10         4          7          0         
81               36         10         4          7          0         