[TITLE]
;;Project Title/Notes
hague modified
Use SI Units
Remove the pump

[OPTIONS]
;;Option             Value
FLOW_UNITS           CMS
INFILTRATION         HORTON
FLOW_ROUTING         DYNWAVE
LINK_OFFSETS         DEPTH
MIN_SLOPE            0
ALLOW_PONDING        NO
SKIP_STEADY_STATE    NO

START_DATE           01/01/2010
START_TIME           00:00:00
REPORT_START_DATE    01/01/2010
REPORT_START_TIME    00:00:00
END_DATE             01/01/2010
END_TIME             06:00:00
SWEEP_START          01/01
SWEEP_END            12/31
DRY_DAYS             0
REPORT_STEP          00:15:00
WET_STEP             00:01:00
DRY_STEP             00:05:00
ROUTING_STEP         00:00:10
RULE_STEP            00:00:00

INERTIAL_DAMPING     PARTIAL
NORMAL_FLOW_LIMITED  FROUDE
FORCE_MAIN_EQUATION  H-W
VARIABLE_STEP        0.75
LENGTHENING_STEP     0
MIN_SURFAREA         1.167
MAX_TRIALS           8
HEAD_TOLERANCE       0.0015
SYS_FLOW_TOL         5
LAT_FLOW_TOL         5
MINIMUM_STEP         0.5
THREADS              4

[EVAPORATION]
;;Data Source    Parameters
;;-------------- ----------------
CONSTANT         0.0
DRY_ONLY         NO

[RAINGAGES]
;;Name           Format    Interval SCF      Source    
;;-------------- --------- ------ ------ ----------
RG   VOLUME    0:15     1.0      TIMESERIES Rain1

[SUBCATCHMENTS]
;;Name           Rain Gage        Outlet           Area     %Imperv  Width    %Slope   CurbLen  SnowPack        
;;-------------- ---------------- ---------------- -------- -------- -------- -------- -------- ----------------
E13155#1         RG   E13155           0.7705215 40       0.3048   100      0                        
E133394#1        RG   E133394          0.6709688 42       0.3048   100      0                        
E133401#1        RG   E133401          0.9336098 76       0.3048   100      0                        
E133464#1        RG   E133464          0.9279442 75       0.3048   100      0                        
E133473#1        RG   E133473          0.5260913 90       0.3048   100      0                        
E133474#1        RG   E133474          0.6916078 79       0.3048   100      0                        
E133478#1        RG   E133478          0.4815759 80       0.3048   100      0                        
E133481#1        RG   E133481          1.798018 55       0.3048   100      0                        
E133483#1        RG   E133483          1.490862 77       0.3048   100      0                        
E134007#1        RG   E134007          0.6264534 35       0.3048   100      0                        
E134010#1        RG   E134010          0.2096272 41       0.3048   100      0                        
E134011#1        RG   E134011          1.284068 49       0.3048   100      0                        
E134203#1        RG   E134203          1.043684 85       0.3048   100      0                        
E134212#1        RG   E134212          0.4888603 69       0.3048   100      0                        
E134213#1        RG   E134213          0.1614696 93       0.3048   100      0                        
E134217#1        RG   E134217          0.6232159 77       0.3048   100      0                        
E134219#1        RG   E134219          0.9676034 71       0.3048   100      0                        
E134222#1        RG   E134222          0.9850049 16       0.3048   100      0                        
E134224.2#1      RG   E134224.2        0.9133755 14       0.3048   100      0                        
E134250#1        RG   E134250          1.674994 46       0.3048   100      0                        
E134255#1        RG   E134255          1.095484 44       0.3048   100      0                        
E134257#1        RG   E134257          1.009691 42       0.3048   100      0                        
E134262#1        RG   E134262          0.08943553 20       0.3048   100      0                        
E134263#1        RG   E134263          1.22903  17       0.3048   100      0                        
E134266#1        RG   E134266          0.3245579 9        0.3048   100      0                        
E134267#1        RG   E134267          0.5269007 24       0.3048   100      0                        
E134278#1        RG   E134278          0.7976354 53       0.3048   100      0                        
E134288#1        RG   E134288          0.5321616 49       0.3048   100      0                        
E143277#1        RG   E143277          0.1339509 40       0.3048   100      0                        
E143278#1        RG   E143278          0.4783384 54       0.3048   100      0                        
E143280#1        RG   E143280          1.109648 73       0.3048   100      0                        
E143282#1        RG   E143282          0.14164  57       0.3048   100      0                        
E143284#1        RG   E143284          0.4386792 43       0.3048   100      0                        
E143287#1        RG   E143287          0.1112886 50       0.3048   100      0                        
E143288#1        RG   E143288          0.9518206 38       0.3048   100      0                        
E143289#1        RG   E143289          0.4738869 44       0.3048   100      0                        
E143300#1        RG   E143300          1.070394 42       0.3048   100      0                        
E143304#1        RG   E143304          0.2812565 44       0.3048   100      0                        
E143314#1        RG   E143314          0.9429175 48       0.3048   100      0                        
E143315#1        RG   E143315          1.356911 43       0.3048   100      0                        
E143319#1        RG   E143319          0.5876036 57       0.3048   100      0                        
E143321#1        RG   E143321          0.8117994 53       0.3048   100      0                        
E143327#1        RG   E143327          0.7021296 77       0.3048   100      0                        
E143329#1        RG   E143329          0.9489878 84       0.3048   100      0                        
E143335#1        RG   E143335          0.3625983 82       0.3048   100      0                        
E143339#1        RG   E143339          0.9186364 71       0.3048   100      0                        
E143340#1        RG   E143340          0.1096698 84       0.3048   100      0                        
E143352#1        RG   E143352          0.2598082 92       0.3048   100      0                        
E143356#1        RG   E143356          0.5787005 86       0.3048   100      0                        
E143358#1        RG   E143358          0.5337804 79       0.3048   100      0                        
E143361#1        RG   E143361          0.6054097 50       0.3048   100      0                        
E143366#1        RG   E143366          0.2800425 14       0.3048   100      0                        
E143369#1        RG   E143369          0.8328431 43       0.3048   100      0                        
E143373#1        RG   E143373          0.2189349 90       0.3048   100      0                        
E143393#1        RG   E143393          4.405408 18       0.3048   100      0                        
E144050#1        RG   E144050          0.2533332 63       0.3048   100      0                        
E144272#1        RG   E144272          1.709797 81       0.3048   100      0                        
E145010#1        RG   E145010          0.0675825 65       0.3048   100      0                        
E145011#1        RG   E145011          0.08215119 69       0.3048   100      0                        
E146002#1        RG   E146002          0.1165495 68       0.3048   100      0                        
E146003#1        RG   E146003          0.5467303 58       0.3048   100      0                        
F13250#1         RG   F13250           0.1064323 69       0.3048   100      0                        
F13251#1         RG   F13251           0.2367411 65       0.3048   100      0                        
F13252#1         RG   F13252           0.4961446 49       0.3048   100      0                        
F13255#1         RG   F13255           2.232651 43       0.3048   100      0                        
F13259#1         RG   F13259           0.1833226 72       0.3048   100      0                        
F13260#1         RG   F13260           0.6535673 66       0.3048   100      0                        
F13264#1         RG   F13264           0.5782958 46       0.3048   100      0                        
F13269#1         RG   F13269           0.7304576 48       0.3048   100      0                        
F13277#1         RG   F13277           0.2152928 66       0.3048   100      0                        
F13281#1         RG   F13281           1.135953 67       0.3048   100      0                        
F13289#1         RG   F13289           1.062704 89       0.3048   100      0                        
F13290#1         RG   F13290           0.05706068 68       0.3048   100      0                        
F13291#1         RG   F13291           0.4342277 75       0.3048   100      0                        
F13292#1         RG   F13292           0.4034716 90       0.3048   100      0                        
F13295#1         RG   F13295           0.1497337 88       0.3048   100      0                        
F133438#1        RG   F133438          2.817826 71       0.3048   100      0                        
F133448#1        RG   F133448          0.2335036 79       0.3048   100      0                        
F133451#1        RG   F133451          0.7462403 67       0.3048   100      0                        
F133452#1        RG   F133452          3.169093 73       0.3048   100      0                        
F133459#1        RG   F133459          1.118146 84       0.3048   100      0                        
F133462#1        RG   F133462          0.9457503 92       0.3048   100      0                        
F133463#1        RG   F133463          1.356911 80       0.3048   100      0                        
F133464#1        RG   F133464          2.093439 80       0.3048   100      0                        
F133469#1        RG   F133469          1.520404 78       0.3048   100      0                        
st3#1            RG   st3              0.3965919 84       0.3048   100      0                        
F134104#1        RG   F134104          1.056634 70       0.3048   100      0                        
F134118#1        RG   F134118          2.986985 29       0.3048   100      0                        
F134126#1        RG   F134126          2.021809 53       0.3048   100      0                        
F134147#1        RG   F134147          0.3597655 35       0.3048   100      0                        
F134200#1        RG   F134200          0.2962299 92       0.3048   100      0                        
F134230#1        RG   F134230          1.62886  83       0.3048   100      0                        
F134231#1        RG   F134231          1.475079 83       0.3048   100      0                        
F135999#1        RG   F135999          1.689967 8        0.3048   100      0                        
F139004#1        RG   F139004          0.7863042 49       0.3048   100      0                        
F139015#1        RG   F139015          0.8146322 21       0.3048   100      0                        
F139025#1        RG   F139025          0.1485196 53       0.3048   100      0                        
F139026#1        RG   F139026          0.2557613 73       0.3048   100      0                        
F139028#1        RG   F139028          0.1687539 84       0.3048   100      0                        
F139029#1        RG   F139029          0.3314375 65       0.3048   100      0                        
F139031#1        RG   F139031          0.6025769 76       0.3048   100      0                        
F143510#1        RG   F143510          1.208796 67       0.3048   100      0                        
F143512#1        RG   F143512          0.6228112 46       0.3048   100      0                        
F143513#1        RG   F143513          3.045664 15       0.3048   100      0                        
F143520#1        RG   F143520          0.334675 17       0.3048   100      0                        
F143529#1        RG   F143529          1.282853 10       0.3048   100      0                        
F143537#1        RG   F143537          0.1509477 21       0.3048   100      0                        
F143539#1        RG   F143539          0.1359744 14       0.3048   100      0                        
F143543#1        RG   F143543          0.5086899 16       0.3048   100      0                        
F143545#1        RG   F143545          1.068775 5        0.3048   100      0                        
F143548#1        RG   F143548          0.2302661 22       0.3048   100      0                        
F143560#1        RG   F143560          2.316421 7        0.3048   100      0                        
F143575#1        RG   F143575          0.3326516 4        0.3048   100      0                        
F143587#1        RG   F143587          0.4779337 10       0.3048   100      0                        
F143590#1        RG   F143590          0.4957399 13       0.3048   100      0                        
F143603#1        RG   F143603          0.3294141 8        0.3048   100      0                        
F143609#1        RG   F143609          2.012502 3        0.3048   100      0                        
F143611.01#1     RG   F143611.01       1.355697 47       0.3048   100      0                        
F143613#1        RG   F143613          0.7369326 44       0.3048   100      0                        
F143613.1#1      RG   F143613.1        0.7369326 44       0.3048   100      0                        
F143617#1        RG   F143617          0.9506066 14       0.3048   100      0                        
F143622#1        RG   F143622          0.4625557 10       0.3048   100      0                        
F143636#1        RG   F143636          2.405856 10       0.3048   100      0                        
F143637#1        RG   F143637          0.1663258 20       0.3048   100      0                        
F143640#1        RG   F143640          0.534185 60       0.3048   100      0                        
F143643#1        RG   F143643          0.7264107 14       0.3048   100      0                        
F143648#1        RG   F143648          0.9518206 41       0.3048   100      0                        
F143648.1#1      RG   F143648.1        0.7057718 39       0.3048   100      0                        
F143649#1        RG   F143649          0.1436634 61       0.3048   100      0                        
F143651#1        RG   F143651          0.1084558 72       0.3048   100      0                        
F143661#1        RG   F143661          1.364195 50       0.3048   100      0                        
F143662#1        RG   F143662          0.6802766 54       0.3048   100      0                        
F143665#1        RG   F143665          1.335867 33       0.3048   100      0                        
F143671#1        RG   F143671          0.370692 17       0.3048   100      0                        
F143674#1        RG   F143674          1.836463 17       0.3048   100      0                        
F143676#1        RG   F143676          0.4451542 26       0.3048   100      0                        
F143682.01#1     RG   F143682.01       2.336655 21       0.3048   100      0                        
F143692#1        RG   F143692          0.8429602 64       0.3048   100      0                        
F143693#1        RG   F143693          1.926304 56       0.3048   100      0                        
F143701#1        RG   F143701          0.1590415 65       0.3048   100      0                        
F143702#1        RG   F143702          0.4309902 51       0.3048   100      0                        
F143705#1        RG   F143705          0.1388072 55       0.3048   100      0                        
F143707#1        RG   F143707          0.2395739 59       0.3048   100      0                        
F143708#1        RG   F143708          1.085367 34       0.3048   100      0                        
F144001#1        RG   F144001          1.837678 52       0.3048   100      0                        
F145017#1        RG   F145017          0.8781678 70       0.3048   100      0                        
F14502#1         RG   F14502           0.1829179 38       0.3048   100      0                        
F14503#1         RG   F14503           0.2104365 27       0.3048   100      0                        
F14504#1         RG   F14504           0.2796378 21       0.3048   100      0                        
F146005#1        RG   F146005          0.5143555 15       0.3048   100      0                        
F146006#1        RG   F146006          0.3079658 7        0.3048   100      0                        
F14601#1         RG   F14601           0.0590841 11       0.3048   100      0                        
F14602#1         RG   F14602           0.1922257 5        0.3048   100      0                        
F14604#1         RG   F14604           0.4309902 16       0.3048   100      0                        
F147005#1        RG   F147005          1.849009 52       0.3048   100      0                        
F147020#1        RG   F147020          0.8275821 65       0.3048   100      0                        
F147143#1        RG   F147143          0.3172735 62       0.3048   100      0                        
F147147#1        RG   F147147          0.08943553 52       0.3048   100      0                        
F147148#1        RG   F147148          0.02104365 49       0.3048   100      0                        
F147148.1#1      RG   F147148.1        0.320511 66       0.3048   100      0                        
F149001.2#1      RG   F149001.2        1.419637 36       0.3048   100      0                        
F149011#1        RG   F149011          0.4370605 69       0.3048   100      0                        
F149012#1        RG   F149012          0.3277954 29       0.3048   100      0                        
F149015#1        RG   F149015          0.2363364 39       0.3048   100      0                        
F149025#1        RG   F149025          0.02589988 39       0.3048   100      0

[SUBAREAS]
;;Subcatchment   N-Imperv   N-Perv     S-Imperv   S-Perv     PctZero    RouteTo    PctRouted 
;;-------------- ---------- ---------- ---------- ---------- ---------- ---------- ----------
E13155#1         0.01       0.1        1.27       1.27       25         OUTLET    
E133394#1        0.01       0.1        1.27       1.27       25         OUTLET    
E133401#1        0.01       0.1        1.27       1.27       25         OUTLET    
E133464#1        0.01       0.1        1.27       1.27       25         OUTLET    
E133473#1        0.01       0.1        1.27       1.27       25         OUTLET    
E133474#1        0.01       0.1        1.27       1.27       25         OUTLET    
E133478#1        0.01       0.1        1.27       1.27       25         OUTLET    
E133481#1        0.01       0.1        1.27       1.27       25         OUTLET    
E133483#1        0.01       0.1        1.27       1.27       25         OUTLET    
E134007#1        0.01       0.1        1.27       1.27       25         OUTLET    
E134010#1        0.01       0.1        1.27       1.27       25         OUTLET    
E134011#1        0.01       0.1        1.27       1.27       25         OUTLET    
E134203#1        0.01       0.1        1.27       1.27       25         OUTLET    
E134212#1        0.01       0.1        1.27       1.27       25         OUTLET    
E134213#1        0.01       0.1        1.27       1.27       25         OUTLET    
E134217#1        0.01       0.1        1.27       1.27       25         OUTLET    
E134219#1        0.01       0.1        1.27       1.27       25         OUTLET    
E134222#1        0.01       0.1        1.27       1.27       25         OUTLET    
E134224.2#1      0.01       0.1        1.27       1.27       25         OUTLET    
E134250#1        0.01       0.1        1.27       1.27       25         OUTLET    
E134255#1        0.01       0.1        1.27       1.27       25         OUTLET    
E134257#1        0.01       0.1        1.27       1.27       25         OUTLET    
E134262#1        0.01       0.1        1.27       1.27       25         OUTLET    
E134263#1        0.01       0.1        1.27       1.27       25         OUTLET    
E134266#1        0.01       0.1        1.27       1.27       25         OUTLET    
E134267#1        0.01       0.1        1.27       1.27       25         OUTLET    
E134278#1        0.01       0.1        1.27       1.27       25         OUTLET    
E134288#1        0.01       0.1        1.27       1.27       25         OUTLET    
E143277#1        0.01       0.1        1.27       1.27       25         OUTLET    
E143278#1        0.01       0.1        1.27       1.27       25         OUTLET    
E143280#1        0.01       0.1        1.27       1.27       25         OUTLET    
E143282#1        0.01       0.1        1.27       1.27       25         OUTLET    
E143284#1        0.01       0.1        1.27       1.27       25         OUTLET    
E143287#1        0.01       0.1        1.27       1.27       25         OUTLET    
E143288#1        0.01       0.1        1.27       1.27       25         OUTLET    
E143289#1        0.01       0.1        1.27       1.27       25         OUTLET    
E143300#1        0.01       0.1        1.27       1.27       25         OUTLET    
E143304#1        0.01       0.1        1.27       1.27       25         OUTLET    
E143314#1        0.01       0.1        1.27       1.27       25         OUTLET    
E143315#1        0.01       0.1        1.27       1.27       25         OUTLET    
E143319#1        0.01       0.1        1.27       1.27       25         OUTLET    
E143321#1        0.01       0.1        1.27       1.27       25         OUTLET    
E143327#1        0.01       0.1        1.27       1.27       25         OUTLET    
E143329#1        0.01       0.1        1.27       1.27       25         OUTLET    
E143335#1        0.01       0.1        1.27       1.27       25         OUTLET    
E143339#1        0.01       0.1        1.27       1.27       25         OUTLET    
E143340#1        0.01       0.1        1.27       1.27       25         OUTLET    
E143352#1        0.01       0.1        1.27       1.27       25         OUTLET    
E143356#1        0.01       0.1        1.27       1.27       25         OUTLET    
E143358#1        0.01       0.1        1.27       1.27       25         OUTLET    
E143361#1        0.01       0.1        1.27       1.27       25         OUTLET    
E143366#1        0.01       0.1        1.27       1.27       25         OUTLET    
E143369#1        0.01       0.1        1.27       1.27       25         OUTLET    
E143373#1        0.01       0.1        1.27       1.27       25         OUTLET    
E143393#1        0.01       0.1        1.27       1.27       25         OUTLET    
E144050#1        0.01       0.1        1.27       1.27       25         OUTLET    
E144272#1        0.01       0.1        1.27       1.27       25         OUTLET    
E145010#1        0.01       0.1        1.27       1.27       25         OUTLET    
E145011#1        0.01       0.1        1.27       1.27       25         OUTLET    
E146002#1        0.01       0.1        1.27       1.27       25         OUTLET    
E146003#1        0.01       0.1        1.27       1.27       25         OUTLET    
F13250#1         0.01       0.1        1.27       1.27       25         OUTLET    
F13251#1         0.01       0.1        1.27       1.27       25         OUTLET    
F13252#1         0.01       0.1        1.27       1.27       25         OUTLET    
F13255#1         0.01       0.1        1.27       1.27       25         OUTLET    
F13259#1         0.01       0.1        1.27       1.27       25         OUTLET    
F13260#1         0.01       0.1        1.27       1.27       25         OUTLET    
F13264#1         0.01       0.1        1.27       1.27       25         OUTLET    
F13269#1         0.01       0.1        1.27       1.27       25         OUTLET    
F13277#1         0.01       0.1        1.27       1.27       25         OUTLET    
F13281#1         0.01       0.1        1.27       1.27       25         OUTLET    
F13289#1         0.01       0.1        1.27       1.27       25         OUTLET    
F13290#1         0.01       0.1        1.27       1.27       25         OUTLET    
F13291#1         0.01       0.1        1.27       1.27       25         OUTLET    
F13292#1         0.01       0.1        1.27       1.27       25         OUTLET    
F13295#1         0.01       0.1        1.27       1.27       25         OUTLET    
F133438#1        0.01       0.1        1.27       1.27       25         OUTLET    
F133448#1        0.01       0.1        1.27       1.27       25         OUTLET    
F133451#1        0.01       0.1        1.27       1.27       25         OUTLET    
F133452#1        0.01       0.1        1.27       1.27       25         OUTLET    
F133459#1        0.01       0.1        1.27       1.27       25         OUTLET    
F133462#1        0.01       0.1        1.27       1.27       25         OUTLET    
F133463#1        0.01       0.1        1.27       1.27       25         OUTLET    
F133464#1        0.01       0.1        1.27       1.27       25         OUTLET    
F133469#1        0.01       0.1        1.27       1.27       25         OUTLET    
st3#1            0.01       0.1        1.27       1.27       25         OUTLET    
F134104#1        0.01       0.1        1.27       1.27       25         OUTLET    
F134118#1        0.01       0.1        1.27       1.27       25         OUTLET    
F134126#1        0.01       0.1        1.27       1.27       25         OUTLET    
F134147#1        0.01       0.1        1.27       1.27       25         OUTLET    
F134200#1        0.01       0.1        1.27       1.27       25         OUTLET    
F134230#1        0.01       0.1        1.27       1.27       25         OUTLET    
F134231#1        0.01       0.1        1.27       1.27       25         OUTLET    
F135999#1        0.01       0.1        1.27       1.27       25         OUTLET    
F139004#1        0.01       0.1        1.27       1.27       25         OUTLET    
F139015#1        0.01       0.1        1.27       1.27       25         OUTLET    
F139025#1        0.01       0.1        1.27       1.27       25         OUTLET    
F139026#1        0.01       0.1        1.27       1.27       25         OUTLET    
F139028#1        0.01       0.1        1.27       1.27       25         OUTLET    
F139029#1        0.01       0.1        1.27       1.27       25         OUTLET    
F139031#1        0.01       0.1        1.27       1.27       25         OUTLET    
F143510#1        0.01       0.1        1.27       1.27       25         OUTLET    
F143512#1        0.01       0.1        1.27       1.27       25         OUTLET    
F143513#1        0.01       0.1        1.27       1.27       25         OUTLET    
F143520#1        0.01       0.1        1.27       1.27       25         OUTLET    
F143529#1        0.01       0.1        1.27       1.27       25         OUTLET    
F143537#1        0.01       0.1        1.27       1.27       25         OUTLET    
F143539#1        0.01       0.1        1.27       1.27       25         OUTLET    
F143543#1        0.01       0.1        1.27       1.27       25         OUTLET    
F143545#1        0.01       0.1        1.27       1.27       25         OUTLET    
F143548#1        0.01       0.1        1.27       1.27       25         OUTLET    
F143560#1        0.01       0.1        1.27       1.27       25         OUTLET    
F143575#1        0.01       0.1        1.27       1.27       25         OUTLET    
F143587#1        0.01       0.1        1.27       1.27       25         OUTLET    
F143590#1        0.01       0.1        1.27       1.27       25         OUTLET    
F143603#1        0.01       0.1        1.27       1.27       25         OUTLET    
F143609#1        0.01       0.1        1.27       1.27       25         OUTLET    
F143611.01#1     0.01       0.1        1.27       1.27       25         OUTLET    
F143613#1        0.01       0.1        1.27       1.27       25         OUTLET    
F143613.1#1      0.01       0.1        1.27       1.27       25         OUTLET    
F143617#1        0.01       0.1        1.27       1.27       25         OUTLET    
F143622#1        0.01       0.1        1.27       1.27       25         OUTLET    
F143636#1        0.01       0.1        1.27       1.27       25         OUTLET    
F143637#1        0.01       0.1        1.27       1.27       25         OUTLET    
F143640#1        0.01       0.1        1.27       1.27       25         OUTLET    
F143643#1        0.01       0.1        1.27       1.27       25         OUTLET    
F143648#1        0.01       0.1        1.27       1.27       25         OUTLET    
F143648.1#1      0.01       0.1        1.27       1.27       25         OUTLET    
F143649#1        0.01       0.1        1.27       1.27       25         OUTLET    
F143651#1        0.01       0.1        1.27       1.27       25         OUTLET    
F143661#1        0.01       0.1        1.27       1.27       25         OUTLET    
F143662#1        0.01       0.1        1.27       1.27       25         OUTLET    
F143665#1        0.01       0.1        1.27       1.27       25         OUTLET    
F143671#1        0.01       0.1        1.27       1.27       25         OUTLET    
F143674#1        0.01       0.1        1.27       1.27       25         OUTLET    
F143676#1        0.01       0.1        1.27       1.27       25         OUTLET    
F143682.01#1     0.01       0.1        1.27       1.27       25         OUTLET    
F143692#1        0.01       0.1        1.27       1.27       25         OUTLET    